16
Oxan
C	0.000000	0.000000	0.000000	0
C	1.526610	0.000000	-0.000000	0
C	2.041102	1.437324	0.000000	0
C	1.402120	2.218071	1.136986	0
O	-0.015168	2.189611	1.058545	0
C	-0.519925	0.864952	1.136808	0
H	-0.394643	-1.011353	0.106209	2
H	-0.369770	0.402029	-0.946570	2
H	1.914077	-0.550291	-0.857238	3
H	1.885189	-0.509154	0.899573	3
H	1.786964	1.921062	-0.946457	2
H	3.126310	1.468046	0.105927	2
H	1.691090	3.267505	1.113327	1
H	1.717148	1.795370	2.100674	1
H	-1.605332	0.946765	1.112586	1
H	-0.228649	0.425848	2.100621	1
