20
Azepane
C	0.000000	0.000000	0.000000	0
C	1.526248	-0.000000	-0.000000	0
C	2.184819	1.381640	-0.000000	0
C	1.987732	2.128318	-1.322167	0
C	0.695443	2.939001	-1.429265	0
N	-0.443515	2.305527	-0.767905	0
C	-0.648234	0.886900	-1.059556	0
H	-0.363678	0.340394	0.972907	2
H	-0.352078	-1.026113	-0.132156	2
H	1.882432	-0.540264	-0.882966	3
H	1.872739	-0.567143	0.866569	3
H	3.254507	1.246140	0.168383	3
H	1.808097	1.981663	0.832505	3
H	2.031036	1.399086	-2.134815	2
H	2.816596	2.816625	-1.493716	2
H	0.499853	3.125828	-2.493867	1
H	0.840551	3.912075	-0.955495	1
H	-1.279243	2.825433	-0.994152	4
H	-0.283750	0.615188	-2.059996	1
H	-1.721919	0.696870	-1.057045	1
