20
Dihydrobenzopyran
C	0.000000	0.000000	-0.000000	0
C	1.514064	-0.000000	-0.000000	0
C	2.004199	1.442190	0.000000	0
C	1.253104	2.253269	1.026438	0
C	0.047528	1.789201	1.556926	0
O	-0.517662	0.605246	1.185498	0
C	-0.633401	2.521274	2.527391	0
C	-0.125125	3.729433	2.969500	0
C	1.069365	4.215137	2.446362	0
C	1.742059	3.472994	1.489263	0
H	-0.411189	-1.005990	-0.015092	7
H	-0.379124	0.549074	-0.867727	7
H	1.880064	-0.539671	-0.872231	6
H	1.867512	-0.523654	0.890393	6
H	1.851303	1.877109	-0.991177	5
H	3.073663	1.494764	0.203961	5
H	-1.560892	2.124373	2.918033	4
H	-0.661491	4.292957	3.720947	3
H	1.472750	5.158496	2.786858	2
H	2.680262	3.836303	1.086356	1
