14
6-Purinone
C	0.000000	0.000000	-0.000000	0
O	1.221389	0.000000	0.000000	0
N	-0.741976	1.181038	0.000000	0
C	-2.103530	1.262949	-0.000900	0
N	-2.905527	0.252256	-0.002134	0
C	-2.268136	-0.957527	-0.002804	0
C	-0.892900	-1.111796	-0.001908	0
N	-0.672629	-2.461154	-0.003643	0
C	-1.890231	-3.045676	-0.003878	0
N	-2.879892	-2.178223	-0.004254	0
H	-0.206858	2.038893	0.000751	3
H	-2.498768	2.270236	-0.000556	4
H	0.219846	-2.929492	-0.003915	1
H	-2.001963	-4.117362	-0.004728	2
