10
Pyridazine
C	0.000000	-0.000000	0.000000	0
C	1.372400	-0.000000	0.000000	0
C	2.004240	1.241350	0.000000	0
N	1.348850	2.392580	-0.000126	0
N	0.023550	2.392580	-0.000126	0
C	-0.631840	1.241350	0.000000	0
H	-0.578410	-0.912330	-0.000063	2
H	1.950810	-0.912330	-0.000063	2
H	3.083020	1.321610	-0.000043	1
H	-1.710620	1.321610	-0.000043	1
