16
Indole
C	0.000000	0.000000	0.000000	0
C	1.406727	-0.000000	0.000000	0
C	2.119664	1.181578	0.000000	0
C	1.422076	2.396995	0.000056	0
C	0.008674	2.372279	0.000043	0
C	-0.716065	1.180097	0.000012	0
N	-0.423863	3.673789	-0.000003	0
C	0.662979	4.511381	-0.000218	0
C	1.812055	3.777137	0.000359	0
H	-0.529981	-0.942782	0.000004	5
H	1.933819	-0.944484	0.000019	4
H	3.201946	1.171840	0.000049	7
H	-1.797815	1.182703	-0.000028	6
H	-1.384066	3.971364	0.000123	2
H	0.524053	5.579197	-0.000361	3
H	2.814109	4.170803	0.000667	1
