20
Benzodiazepinone
C	0.000000	0.000000	0.000000	0
O	1.216134	0.000000	-0.000000	0
C	-0.832542	1.262995	0.000000	0
N	-1.566357	1.410866	1.250505	0
C	-2.542253	0.626672	1.455958	0
C	-2.992424	-0.493451	0.616433	0
C	-2.102933	-1.330063	-0.071003	0
N	-0.711494	-1.164710	-0.007633	0
C	-2.596199	-2.429766	-0.774969	0
C	-3.952012	-2.689154	-0.812068	0
C	-4.845432	-1.862235	-0.135423	0
C	-4.358529	-0.788889	0.582580	0
H	-1.520964	1.222890	-0.850776	6
H	-0.155819	2.101550	-0.123826	6
H	-3.130013	0.798419	2.356573	7
H	-0.150455	-1.995370	-0.139057	5
H	-1.900024	-3.078371	-1.290314	4
H	-4.314430	-3.542965	-1.367549	3
H	-5.906272	-2.065578	-0.159565	2
H	-5.035986	-0.153941	1.139507	1
