18
Naphtalene
C	0.000000	0.000000	0.000000	0
C	1.413770	-0.000000	0.000000	0
C	2.103098	1.180152	0.000000	0
C	1.416814	2.419426	0.000196	0
C	-0.003041	2.419427	0.000249	0
C	-0.689329	1.180151	0.000022	0
C	-0.689326	3.658701	0.000215	0
C	0.000002	4.838854	0.000286	0
C	1.413772	4.838854	0.000183	0
C	2.103099	3.658701	0.000030	0
H	-0.534493	-0.940166	-0.000048	2
H	1.948262	-0.940168	0.000132	2
H	3.185999	1.185495	0.000162	1
H	-1.772227	1.185497	0.000153	1
H	-1.772226	3.653359	0.000458	1
H	-0.534490	5.779022	0.000555	2
H	1.948265	5.779021	0.000194	2
H	3.185999	3.653356	0.000081	1
