16
Penicillin2
C	0.000000	0.000000	0.000000	0
O	1.204897	-0.000000	0.000000	0
C	-1.103220	1.052711	0.000000	0
C	-2.074453	-0.144049	-0.114275	0
S	-3.067003	-0.378231	-1.618460	0
N	-0.901844	-1.035616	-0.054299	0
C	-0.807932	-2.331244	-0.612670	0
C	-1.300632	-2.497216	-1.834064	0
C	-1.828433	-1.319077	-2.592858	0
H	-1.071859	1.687991	-0.881711	4
H	-1.185783	1.651172	0.903016	4
H	-2.743445	-0.269831	0.732961	5
H	-0.389818	-3.120289	-0.004149	3
H	-1.330687	-3.478655	-2.287038	2
H	-2.339187	-1.613419	-3.504443	1
H	-1.018883	-0.640080	-2.861681	1
