16
Benzofuranone
C	0.000000	0.000000	0.000000	0
O	1.201883	0.000000	-0.000000	0
O	-0.717918	1.146689	0.000000	0
C	-2.130265	0.881272	0.000076	0
C	-2.228559	-0.612938	-0.000587	0
C	-0.947299	-1.128892	-0.000549	0
C	-0.695348	-2.492477	-0.001110	0
C	-1.789420	-3.341729	-0.001699	0
C	-3.088128	-2.825261	-0.001739	0
C	-3.326821	-1.457307	-0.001184	0
H	-2.566225	1.336725	-0.887817	5
H	-2.565862	1.335678	0.888693	5
H	0.318337	-2.869634	-0.001045	4
H	-1.642698	-4.412642	-0.002140	3
H	-3.925996	-3.509286	-0.002247	2
H	-4.337039	-1.071741	-0.001275	1
