14
Cyclopentanone
O	0.000000	0.000000	0.000000	0
C	1.207790	0.000000	0.000000	0
C	2.090759	1.233388	0.000000	0
C	3.489390	0.701173	-0.313361	0
C	3.489420	-0.701072	0.313409	0
C	2.090791	-1.233335	0.000039	0
H	2.052085	1.642261	1.014422	1
H	1.707200	1.992435	-0.678218	1
H	4.282296	1.335925	0.074490	2
H	3.620828	0.619758	-1.393561	2
H	3.620842	-0.619653	1.393610	2
H	4.282324	-1.335811	-0.074471	2
H	1.707230	-1.992373	0.678260	1
H	2.052155	-1.642257	-1.014368	1
