15
Carbapenem
N	0.000000	-0.000000	0.000000	0
C	1.400277	-0.000000	-0.000000	0
O	2.179447	0.913060	-0.000000	0
C	1.485348	-1.519069	-0.087499	0
C	-0.052015	-1.474516	-0.233728	0
C	-0.718888	-1.633272	-1.612113	0
C	-1.208904	-0.230364	-1.908911	0
C	-0.770670	0.646698	-1.014381	0
H	1.873319	-2.011865	0.800250	5
H	2.027166	-1.854042	-0.969373	5
H	-0.597449	-1.990347	0.551403	4
H	-1.533094	-2.354503	-1.576587	3
H	-0.022219	-1.971510	-2.383082	3
H	-1.820396	0.021206	-2.761829	2
H	-0.920048	1.714039	-0.981477	1
