9
1,2,4-Triazol-3-one
N	0.000000	0.000000	0.000000	0
N	1.369401	-0.000000	0.000000	0
C	1.913352	1.249773	-0.000000	0
O	3.088765	1.582843	0.000158	0
N	0.788917	2.051836	-0.000821	0
C	-0.316850	1.249524	-0.000689	0
H	1.882385	-0.864772	0.001025	3
H	0.810737	3.058026	-0.000952	2
H	-1.325030	1.624758	-0.001163	1
