11
2-Pyrimidone
O	0.000000	0.000000	0.000000	0
C	1.222144	0.000000	-0.000000	0
N	1.909890	1.210949	0.000000	0
C	3.251999	1.313625	-0.000390	0
C	4.003656	0.183180	-0.000502	0
C	3.290061	-1.033907	-0.000168	0
N	1.987594	-1.141565	0.000047	0
H	1.338144	2.044521	0.000170	1
H	3.658667	2.314253	-0.000414	2
H	5.079411	0.215093	-0.000754	3
H	3.844564	-1.967241	-0.000322	4
