16
Quinazoline
C	0.000000	0.000000	0.000000	0
C	1.415064	-0.000000	0.000000	0
C	2.103255	1.180205	0.000000	0
C	1.392633	2.400719	-0.000207	0
C	-0.017606	2.402690	-0.000386	0
C	-0.707676	1.170307	-0.000136	0
N	-0.712365	3.574951	-0.000861	0
C	-0.012845	4.674842	-0.001153	0
N	1.342015	4.788359	-0.000844	0
C	2.016029	3.667679	-0.000442	0
H	-0.525374	-0.945363	0.000099	4
H	1.945539	-0.941744	-0.000002	5
H	3.185534	1.199770	0.000098	6
H	-1.788838	1.182609	-0.000081	3
H	-0.559110	5.610915	-0.001581	2
H	3.100301	3.730453	0.000097	1
