9
Cyclopropane
C	0.000000	0.000000	0.000000	0
C	1.499198	0.000000	-0.000000	0
C	0.749409	1.298162	-0.000000	0
H	-0.503474	-0.289932	0.909863	1
H	-0.503776	-0.290108	-0.909639	1
H	2.002190	-0.290468	-0.909942	1
H	2.002283	-0.290665	0.909823	1
H	0.748410	1.879040	-0.909848	1
H	0.748283	1.879217	0.909729	1
