19
Norbornane
C	0.000000	0.000000	-0.000000	0
C	1.556460	0.000000	0.000000	0
C	1.905409	1.497276	0.000000	0
C	0.778504	2.075820	-0.866674	0
C	-0.348941	1.497313	-0.000685	0
C	-0.000418	2.070932	1.382460	0
C	1.556032	2.070504	1.383136	0
H	-0.419623	-0.510870	0.866452	1
H	-0.388553	-0.488321	-0.893619	1
H	1.944837	-0.487567	-0.894138	1
H	1.976177	-0.511590	0.865965	1
H	2.920964	1.714069	-0.324304	2
H	0.778884	1.684239	-1.884895	3
H	0.778461	3.166369	-0.895148	3
H	-1.364295	1.714084	-0.325636	2
H	-0.420655	1.467192	2.186629	1
H	-0.388584	3.083752	1.490057	1
H	1.975155	1.465849	2.187218	1
H	1.944815	3.082935	1.491892	1
