9
Imidazole
C	0.000000	-0.000000	0.000000	0
N	1.351744	-0.000000	0.000000	0
C	1.766373	1.305523	-0.000000	0
C	0.620252	2.046179	-0.000192	0
N	-0.480806	1.220758	-0.001006	0
H	-0.575568	-0.910520	-0.000022	2
H	1.944482	-0.813594	0.000196	1
H	2.806092	1.576993	0.000208	3
H	0.525663	3.118770	-0.000303	4
