16
1,3-Benzodiazol-2-one
C	0.000000	-0.000000	0.000000	0
O	1.220401	-0.000000	0.000000	0
N	-0.835250	1.094180	0.000000	0
C	-2.164798	0.700462	0.002817	0
C	-2.164798	-0.700458	0.003496	0
N	-0.835250	-1.094180	0.001061	0
C	-3.344047	-1.419688	0.005133	0
C	-4.533806	-0.696217	0.006824	0
C	-4.533806	0.696223	0.006149	0
C	-3.344047	1.419692	0.003757	0
H	-0.488016	2.038221	0.002550	3
H	-0.488016	-2.038218	0.004536	3
H	-3.340167	-2.500368	0.005652	1
H	-5.474304	-1.229116	0.008614	2
H	-5.474304	1.229124	0.007423	2
H	-3.340167	2.500372	0.003228	1
