21
Quinuclidine
C	0.000000	0.000000	0.000000	0
C	1.551684	0.000000	0.000000	0
N	2.095878	1.361563	0.000000	0
C	1.627027	2.069715	-1.195481	0
C	0.078194	2.153140	-1.244977	0
C	-0.476667	1.454414	-0.001236	0
C	0.076973	2.154260	1.242796	0
C	1.625987	2.069551	1.195373	0
H	-0.387266	-0.516062	0.879768	2
H	-0.387286	-0.517445	-0.878974	2
H	1.940852	-0.514024	-0.879615	1
H	1.940423	-0.514240	0.879594	1
H	2.016737	1.544956	-2.068508	1
H	2.069670	3.066330	-1.187155	1
H	-0.307327	1.670803	-2.144454	2
H	-0.252939	3.192517	-1.264486	2
H	-1.565533	1.493591	-0.001782	3
H	-0.309657	1.672790	2.142262	2
H	-0.253308	3.193922	1.261585	2
H	2.013530	1.543137	2.068310	1
H	2.069730	3.065697	1.189369	1
