17
Isoindolone
C	0.000000	0.000000	0.000000	0
O	1.222212	-0.000000	-0.000000	0
N	-0.807336	1.088909	0.000000	0
C	-2.228081	0.787222	0.001816	0
C	-2.222697	-0.716177	0.000896	0
C	-0.913763	-1.172277	-0.000130	0
C	-0.606385	-2.522747	-0.001023	0
C	-1.660131	-3.424963	-0.000938	0
C	-2.980117	-2.971192	0.000002	0
C	-3.277555	-1.613660	0.000904	0
H	-0.439912	2.025845	0.002783	5
H	-2.723902	1.192408	-0.881463	6
H	-2.721244	1.191058	0.887246	6
H	0.423456	-2.854605	-0.001785	4
H	-1.462002	-4.487872	-0.001631	3
H	-3.786696	-3.691952	0.000025	2
H	-4.304840	-1.274323	0.001608	1
