10
3-Pyrazolone
O	0.000000	0.000000	0.000000	0
C	1.230600	0.000000	0.000000	0
N	2.000269	1.151943	0.000000	0
N	3.327983	0.828458	-0.221327	0
C	3.419484	-0.526354	-0.112651	0
C	2.190222	-1.084738	-0.013998	0
H	1.659193	2.017554	-0.391116	3
H	4.010756	1.427924	0.221736	4
H	4.394763	-0.984817	-0.111597	2
H	1.944996	-2.130612	0.013915	1
