11
Imidazoline
C	0.000000	0.000000	0.000000	0
C	1.538469	-0.000000	0.000000	0
N	1.802944	1.443602	0.000000	0
C	0.664000	2.032092	-0.501519	0
N	-0.389781	1.316800	-0.546125	0
H	-0.392235	-0.085313	1.016364	2
H	-0.424312	-0.807515	-0.591684	2
H	1.939249	-0.466190	-0.903216	1
H	1.965519	-0.487888	0.871767	1
H	2.693912	1.778126	-0.331977	3
H	0.694816	3.072651	-0.801938	4
