18
Dihydrobenzodioxine
C	0.000000	0.000000	-0.000000	0
C	1.509189	-0.000000	-0.000000	0
O	1.991951	1.339889	0.000000	0
C	1.362288	2.148422	0.902183	0
C	0.146905	1.789508	1.492436	0
O	-0.482757	0.616475	1.189652	0
C	-0.443160	2.637137	2.420227	0
C	0.156035	3.842042	2.750414	0
C	1.353158	4.209716	2.145775	0
C	1.952353	3.362179	1.227897	0
H	-0.392096	-1.013099	-0.011411	3
H	-0.373888	0.546695	-0.869341	3
H	1.901286	-0.476256	-0.894248	3
H	1.883082	-0.520349	0.885373	3
H	-1.380450	2.332316	2.866306	1
H	-0.314561	4.494062	3.472657	2
H	1.823750	5.150970	2.392373	2
H	2.889643	3.617990	0.752016	1
