14
Benzisoxazole
C	0.000000	0.000000	0.000000	0
C	1.406829	0.000000	0.000000	0
C	2.121130	1.179455	-0.000000	0
C	1.395185	2.373265	0.000013	0
C	0.007648	2.346851	0.000019	0
C	-0.732629	1.170843	0.000011	0
O	-0.473396	3.607035	0.000038	0
N	0.605383	4.485614	-0.000116	0
C	1.686185	3.776585	0.000092	0
H	-0.523223	-0.946295	0.000004	4
H	1.931420	-0.944841	0.000009	3
H	3.201812	1.182569	0.000014	2
H	-1.812413	1.176864	0.000018	5
H	2.643207	4.274101	0.000118	1
