9
NS(=O)(=O)N
N	0.000000	-0.000000	0.000000	0
S	1.643290	-0.000000	0.000000	0
N	2.261998	1.522271	0.000000	0
O	2.039531	-0.588900	1.256519	0
O	2.039554	-0.588869	-1.256517	0
H	-0.390974	0.408759	0.841092	1
H	-0.390715	0.407570	-0.841798	1
H	2.030473	2.038667	0.840891	1
H	2.032382	2.037535	-0.842090	1
