10
Pyrrole
C	0.000000	0.000000	-0.000000	0
C	1.372796	0.000000	-0.000000	0
C	1.794322	1.357626	0.000000	0
C	0.662939	2.135151	0.000026	0
N	-0.416812	1.299910	0.000090	0
H	-0.708511	-0.809586	0.000064	2
H	2.001768	-0.874159	0.000014	3
H	2.807794	1.721828	0.000023	3
H	0.537572	3.203655	0.000094	2
H	-1.376955	1.598027	-0.000358	1
