17
4-Quinazolinone
C	0.000000	0.000000	0.000000	0
O	1.218924	-0.000000	-0.000000	0
N	-0.714797	1.182219	0.000000	0
C	-2.078232	1.247830	-0.000267	0
N	-2.857836	0.231261	-0.000333	0
C	-2.251393	-1.019745	-0.000128	0
C	-0.857267	-1.183540	0.000028	0
C	-0.291098	-2.461078	0.000201	0
C	-1.103675	-3.572040	0.000149	0
C	-2.495913	-3.415549	-0.000007	0
C	-3.064266	-2.161279	-0.000119	0
H	-0.178694	2.039410	0.000154	5
H	-2.487902	2.250108	-0.000498	6
H	0.786410	-2.551301	0.000304	4
H	-0.672508	-4.563045	0.000251	3
H	-3.132041	-4.290308	-0.000039	2
H	-4.137357	-2.029020	-0.000254	1
