18
4-Quinolinone
C	0.000000	0.000000	0.000000	0
O	1.235729	-0.000000	0.000000	0
C	-0.789563	1.204692	0.000000	0
C	-2.144770	1.154174	-0.000097	0
N	-2.824744	-0.011651	-0.000183	0
C	-2.177090	-1.225192	-0.000142	0
C	-0.775891	-1.253090	-0.000021	0
C	-0.126646	-2.495162	0.000101	0
C	-0.844785	-3.666898	0.000053	0
C	-2.247168	-3.622775	-0.000089	0
C	-2.911616	-2.420370	-0.000171	0
H	-0.287197	2.160070	0.000008	7
H	-2.754497	2.046078	-0.000190	6
H	-3.832619	0.003361	-0.000298	5
H	0.954560	-2.499840	0.000181	4
H	-0.336809	-4.620807	0.000141	3
H	-2.814685	-4.543296	-0.000151	2
H	-3.993010	-2.381317	-0.000291	1
