11
Pyridine
C	0.000000	0.000000	-0.000000	0
C	1.387213	-0.000000	-0.000000	0
C	2.048813	1.218251	-0.000000	0
C	1.296645	2.382775	0.000100	0
C	-0.086550	2.277442	0.000429	0
N	-0.734342	1.112440	0.000287	0
H	-0.545941	-0.935867	-0.000241	1
H	1.930004	-0.934090	-0.000050	2
H	3.129222	1.259309	-0.000130	3
H	1.766949	3.355371	-0.000035	2
H	-0.702008	3.169131	0.000707	1
