11
2-Oxazolidone
C	0.000000	0.000000	0.000000	0
C	1.529483	-0.000000	0.000000	0
O	1.886010	1.393683	-0.000000	0
C	0.827639	2.127203	-0.414737	0
O	0.896785	3.319795	-0.597058	0
N	-0.239379	1.308823	-0.583590	0
H	-0.410432	-0.068719	1.007850	2
H	-0.407211	-0.798784	-0.612895	2
H	1.931272	-0.452636	-0.904947	3
H	1.964999	-0.467063	0.876527	3
H	-1.156445	1.715578	-0.659892	1
