13
Tetrahydropyridazinone
C	0.000000	0.000000	0.000000	0
O	1.218960	-0.000000	0.000000	0
C	-0.845611	1.244729	-0.000000	0
C	-2.198482	0.992434	-0.652331	0
C	-2.776019	-0.285889	-0.133651	0
N	-2.072264	-1.294713	0.186461	0
N	-0.704552	-1.166726	0.038150	0
H	-0.289294	2.039144	-0.489560	4
H	-0.976616	1.527897	1.047943	4
H	-2.083604	0.894665	-1.736561	3
H	-2.881901	1.819252	-0.477055	3
H	-3.846808	-0.407658	-0.028252	2
H	-0.189470	-2.017698	0.202615	1
