15
Benzothiophene
C	0.000000	0.000000	0.000000	0
C	1.402769	0.000000	-0.000000	0
C	2.108196	1.184605	0.000000	0
C	1.412861	2.401285	0.000009	0
C	0.006936	2.381951	-0.000000	0
C	-0.708538	1.184865	0.000000	0
S	-0.640460	3.995849	-0.000198	0
C	0.956127	4.675380	0.000302	0
C	1.930726	3.742851	0.000007	0
H	-0.533956	-0.940322	-0.000023	4
H	1.933377	-0.942146	-0.000026	3
H	3.190339	1.183845	-0.000003	2
H	-1.789909	1.185811	-0.000047	5
H	1.069865	5.747292	0.000489	6
H	2.984864	3.978071	0.000025	1
