17
Oxindole
N	0.000000	-0.000000	0.000000	0
C	1.366610	-0.000000	0.000000	0
O	2.072884	0.988040	0.000000	0
C	1.814553	-1.456506	-0.000164	0
C	0.521101	-2.217317	0.000592	0
C	-0.528283	-1.296072	0.000603	0
C	-1.853060	-1.686775	0.001122	0
C	-2.117114	-3.054929	0.001691	0
C	-1.086973	-3.986165	0.001727	0
C	0.244760	-3.568297	0.001180	0
H	-0.544732	0.847995	0.000591	5
H	2.432499	-1.642718	0.878552	6
H	2.430882	-1.642527	-0.880118	6
H	-2.653657	-0.960335	0.001121	4
H	-3.144300	-3.393249	0.002127	3
H	-1.317817	-5.042156	0.002204	2
H	1.047109	-4.294244	0.001221	1
