15
Penam
C	0.000000	0.000000	0.000000	0
S	1.823191	-0.000000	-0.000000	0
C	1.801309	1.824373	0.000000	0
C	0.619488	2.258044	-0.884713	0
N	-0.350205	1.170878	-0.809946	0
C	-0.784062	0.392656	-1.862110	0
O	-1.047251	0.687191	-2.999208	0
C	-0.695844	-0.894628	-1.046258	0
H	-0.397897	0.005094	1.010198	2
H	2.750653	2.186395	-0.383841	3
H	1.670994	2.179661	1.019244	3
H	0.919786	2.381928	-1.924975	4
H	0.202140	3.194994	-0.521823	5
H	-0.078496	-1.666326	-1.496052	1
H	-1.655629	-1.299190	-0.737096	1
