9
Thiophene
C	0.000000	0.000000	-0.000000	0
C	1.424095	-0.000000	-0.000000	0
C	1.945509	1.257133	0.000000	0
S	0.712049	2.448932	0.001518	0
C	-0.521412	1.257134	0.000380	0
H	-0.605239	-0.894130	-0.000383	2
H	2.029332	-0.894132	-0.000398	2
H	2.981774	1.551167	-0.000233	1
H	-1.557676	1.551174	0.000471	1
