10
Pyrazine
N	0.000000	0.000000	0.000000	0
C	1.329379	0.000000	-0.000000	0
C	2.061472	1.180560	0.000000	0
N	1.470553	2.371386	-0.000060	0
C	0.141180	2.371394	-0.000100	0
C	-0.590919	1.190826	-0.000040	0
H	1.830058	-0.959644	-0.000079	1
H	3.143649	1.158618	0.000207	1
H	-0.359504	3.331030	-0.000261	1
H	-1.673096	1.212768	0.000133	1
